<routes>
    <vType id="car" accel="1.0" decel="1.5" sigma="0.5" length="5" maxSpeed="50"/>
    
    <!-- Fix route to match network edges -->
    <route id="r1" edges="road_AB"/> 

    <vehicle id="veh1" type="car" route="r1" depart="0"/>
    <vehicle id="veh2" type="car" route="r1" depart="10"/>
</routes>
