<nodes>
    <node id="A" x="0" y="0" type="priority"/>
    <node id="B" x="200" y="0" type="priority"/>
</nodes>

