<?xml version="1.0" encoding="UTF-8"?>
<net version="1.20" junctionCornerDetail="5" limitTurnSpeed="5.50" xmlns:xsi="http://www.w3.org/2001/XMLSchema-instance" xsi:noNamespaceSchemaLocation="http://sumo.dlr.de/xsd/net_file.xsd">

    <location netOffset="0.00,0.00" convBoundary="0.00,0.00,200.00,0.00" origBoundary="0.00,0.00,200.00,0.00" projParameter="!"/>

    <edge id="road_AB" from="A" to="B" priority="-1">
        <lane id="road_AB_0" index="0" speed="13.90" length="200.00" shape="0.00,-4.80 200.00,-4.80"/>
        <lane id="road_AB_1" index="1" speed="13.90" length="200.00" shape="0.00,-1.60 200.00,-1.60"/>
    </edge>

    <junction id="A" type="dead_end" x="0.00" y="0.00" incLanes="" intLanes="" shape="0.00,0.00 0.00,-6.40"/>
    <junction id="B" type="dead_end" x="200.00" y="0.00" incLanes="road_AB_0 road_AB_1" intLanes="" shape="200.00,-6.40 200.00,0.00"/>

</net>
