<configuration>
    <input>
        <net-file value="simple_network.net.xml"/>
        <route-files value="simple.rou.xml"/>
    </input>
    <time>
        <begin value="0"/>
        <end value="500"/>
    </time>

<output>
        <tripinfo-output value="tripinfo.xml"/>
        <summary-output value="summary.xml"/>
    </output>
</configuration>

