<edges>
    <edge id="road_AB" from="A" to="B" numLanes="2" speed="13.9"/>
</edges>

